[General]
repeat = 1
SN.deployment = "2x3"
SN.field_x = 20
SN.field_y = 20
SN.node[*].Application.reportDestination = "SINK"
SN.node[*].Application.rng-0	 = 3
SN.node[*].ApplicationName = "FloodingApplication"
SN.node[*].Communication.MAC.rng-0 = 4
SN.node[*].Communication.MAC.rng-1 = 5
SN.node[*].Communication.Radio.RadioParametersFile = "../Parameters/Radio/CC2420.txt"
SN.node[*].Communication.Radio.TxOutputPower = "-5dBm"
SN.node[*].Communication.Radio.rng-0 = 2
SN.node[*].Communication.RoutingProtocolName = "FloodRouting"
SN.node[*].MobilityManager.rng-0 = 0
SN.node[*].ResourceManager.*.rng-0 = 6
SN.node[*].SensorManager.rng-0	  = 7
SN.node[*].SensorManager.rng-1	  = 8
SN.node[0].Application.isSink = true
SN.numNodes = 5
SN.physicalProcess[*].rng-0 	 = 10
SN.wirelessChannel.rng-0 	 = 1
SN.wirelessChannel.rng-2 	 = 9
cmdenv-event-banners = false
cmdenv-express-mode = true
cmdenv-interactive = false
cmdenv-module-messages = true
cmdenv-performance-display = false
ned-path = ../../src
network = SN
num-rngs = 11
output-scalar-file = Castalia-statistics.sca
output-vector-file = Castalia-statistics.vec
sim-time-limit = 100s
